Clear

New circuit.test_transformer_kv basekv=115 pu=1.01 phases=3 bus1=sourcebus

New Transformer.substation phases=3 windings=2 XHL=(8 1000 /)
~ wdg=1 bus=sourcebus conn=delta kv=115 kva=5000 %r=(.5 1000 /) XHT=4
~ wdg=2 bus=bus1 conn=wye kv=4.16 kva=5000 %r=(.5 1000 /)   XLT=4

New Transformer.reg1 phases=3 Buses=[bus1 bus2] windings=2 kVs=[4.16 4.16] kVAs=[1666 1666]

New Transformer.xfm1 phases=2 windings=2 XHL=2
~ wdg=1 bus=bus2.1.3 conn=Wye kv=4.16 kva=500 %r=.55 XHT=1
~ wdg=2 bus=bus3.1.3 conn=Wye kv=0.48 kva=500 %r=.55 XLT=1

Set Voltagebases=[115, 4.16, .48]
Calcvoltagebases
Solve